/*--------------------------------*- C++ -*----------------------------------*\
| =========                 |                                                 |
| \\      /  F ield         | OpenFOAM: The Open Source CFD Toolbox           |
|  \\    /   O peration     | Version:  2206                                  |
|   \\  /    A nd           | Website:  www.openfoam.com                      |
|    \\/     M anipulation  |                                                 |
\*---------------------------------------------------------------------------*/
FoamFile
{
    version     2.0;
    format      ascii;
    arch        "LSB;label=32;scalar=64";
    class       extendedFeatureEdgeMesh;
    location    "constant/extendedFeatureEdgeMesh";
    object      DTC-scaled.extendedFeatureEdgeMesh;
}
// * * * * * * * * * * * * * * * * * * * * * * * * * * * * * * * * * * * * * //

// points

1292
(
(-0.113503 -0.429241 0.572322)
(-0.113503 2.39837e-08 0.257545)
(-0.113503 5.38562e-08 0.572322)
(6.16209 5.24458e-08 0.572322)
(6.15598 5.24472e-08 0.572322)
(0.91499 5.3625e-08 0.572322)
(3.32544 -1.23027e-09 -4.32462e-09)
(3.26101 -1.21579e-09 8.51047e-09)
(3.17822 -1.19719e-09 -4.80975e-09)
(3.16553 -1.19433e-09 -3.16406e-09)
(3.35911 -1.23784e-09 9.42745e-09)
(3.17822 -1.19718e-09 1.59698e-08)
(3.09953 -1.1795e-09 6.56698e-09)
(3.42644 -1.25297e-09 -9.33609e-09)
(3.46011 -1.26054e-09 1.23976e-08)
(3.03794 -1.16566e-09 -6.63232e-09)
(3.00868 -1.15908e-09 8.08151e-09)
(2.97899 -1.15241e-09 1.84499e-09)
(3.55558 -1.28199e-09 -1.73792e-08)
(2.94832 -1.14552e-09 -2.20677e-10)
(2.91637 -1.13834e-09 -1.45992e-08)
(3.62002 -1.29647e-09 2.32764e-09)
(3.65369 -1.30404e-09 -5.62762e-09)
(2.84949 -1.12331e-09 -9.01216e-10)
(2.81582 -1.11574e-09 -7.79042e-09)
(3.72021 -1.31899e-09 1.14441e-08)
(2.78216 -1.10818e-09 -2.91722e-09)
(2.74849 -1.10061e-09 -3.87133e-09)
(3.78283 -1.33307e-09 -1.36707e-08)
(2.71483 -1.09304e-09 -4.93322e-09)
(2.68116 -1.08548e-09 -1.18224e-08)
(3.84727 -1.34755e-09 6.03611e-09)
(2.64866 -1.07817e-09 -8.13358e-09)
(2.61725 -1.07111e-09 -7.80854e-09)
(3.91421 -1.36259e-09 -2.0956e-08)
(2.58654 -1.06421e-09 5.41483e-09)
(3.94631 -1.36981e-09 -1.12357e-08)
(2.55506 -1.05714e-09 3.56046e-09)
(3.97718 -1.37674e-09 -1.7355e-08)
(2.52239 -1.0498e-09 -1.16172e-08)
(4.00726 -1.3835e-09 -5.67328e-09)
(2.48873 -1.04223e-09 -8.08912e-10)
(4.03734 -1.39026e-09 -1.18103e-08)
(2.4554 -1.03474e-09 5.54422e-09)
(4.06822 -1.3972e-09 1.46124e-08)
(2.42309 -1.02748e-09 -1.96237e-08)
(2.39182 -1.02045e-09 -2.08749e-08)
(2.3616 -1.01366e-09 -1.29142e-09)
(4.16724 -1.41946e-09 -1.35638e-08)
(2.33211 -1.00703e-09 -1.07056e-08)
(4.20138 -1.42713e-09 5.84958e-09)
(2.30356 -1.00062e-09 -6.95503e-09)
(2.27577 -9.9437e-10 3.08514e-09)
(2.24682 -9.87864e-10 -5.34783e-10)
(4.30809 -1.45111e-09 -2.57806e-08)
(2.21677 -9.81112e-10 -1.84884e-08)
(2.18558 -9.74102e-10 -5.79778e-09)
(2.15319 -9.66823e-10 -9.28348e-09)
(4.40956 -1.47391e-09 7.51893e-09)
(2.12002 -9.59368e-10 -1.28947e-08)
(4.44322 -1.48148e-09 -3.28936e-09)
(2.08561 -9.51634e-10 -2.54871e-09)
(4.47734 -1.48915e-09 4.46939e-09)
(2.05107 -9.43872e-10 3.56368e-10)
(4.51286 -1.49713e-09 -2.72747e-08)
(2.0174 -9.36305e-10 -6.53283e-09)
(4.54898 -1.50525e-09 5.46625e-09)
(1.98374 -9.2874e-10 -1.65963e-09)
(1.95007 -9.21174e-10 -8.54883e-09)
(1.9164 -9.13606e-10 5.34151e-09)
(4.65005 -1.52796e-09 -3.24304e-08)
(1.88274 -9.06042e-10 -1.05648e-08)
(1.84907 -8.98474e-10 3.32551e-09)
(4.71093 -1.54164e-09 1.25117e-08)
(1.81539 -8.90905e-10 -4.81633e-10)
(1.78203 -8.83407e-10 9.91942e-09)
(1.74935 -8.76064e-10 -2.17619e-09)
(4.78902 -1.5592e-09 -2.94176e-08)
(1.71644 -8.68666e-10 1.05816e-08)
(1.68252 -8.61045e-10 -8.33642e-09)
(4.83323 -1.56913e-09 1.31883e-08)
(1.64723 -8.53115e-10 -2.07381e-08)
(1.61046 -8.44848e-10 1.6175e-08)
(4.87398 -1.57829e-09 -2.39999e-08)
(1.57437 -8.36736e-10 3.05915e-08)
(4.89488 -1.58298e-09 2.5714e-08)
(1.53928 -8.28855e-10 -1.96841e-08)
(4.91638 -1.58782e-09 -1.44533e-08)
(1.50557 -8.21279e-10 -2.31544e-08)
(4.93737 -1.59253e-09 1.04964e-08)
(1.47305 -8.1397e-10 -1.33015e-08)
(1.44178 -8.0694e-10 6.22686e-09)
(4.9772 -1.60148e-09 1.47354e-09)
(1.4109 -8.00001e-10 -5.35135e-09)
(4.99598 -1.6057e-09 1.56823e-08)
(1.37895 -7.92819e-10 2.18292e-08)
(1.34618 -7.85456e-10 -1.12617e-09)
(1.3129 -7.77974e-10 2.32167e-08)
(5.04778 -1.61735e-09 -1.52822e-08)
(1.28084 -7.70771e-10 1.00776e-08)
(5.06353 -1.62088e-09 1.52194e-08)
(1.24974 -7.6378e-10 2.76929e-08)
(5.07825 -1.62419e-09 -7.99236e-09)
(1.21995 -7.57087e-10 -2.09356e-09)
(1.1919 -7.50783e-10 4.93498e-09)
(5.10464 -1.63012e-09 9.6001e-09)
(1.16518 -7.44779e-10 -1.19134e-08)
(1.14043 -7.39216e-10 5.46649e-09)
(5.12711 -1.63518e-09 -2.96095e-08)
(1.11694 -7.33936e-10 1.45953e-08)
(5.13721 -1.63744e-09 1.70001e-08)
(1.09487 -7.28975e-10 1.96163e-08)
(5.14667 -1.63957e-09 -2.41846e-08)
(1.07388 -7.24257e-10 2.43555e-08)
(1.05369 -7.19723e-10 -1.25678e-08)
(5.16393 -1.64345e-09 1.9004e-08)
(1.0345 -7.1541e-10 -1.37607e-09)
(1.01579 -7.11204e-10 1.03484e-08)
(0.997143 -7.07014e-10 3.55359e-09)
(5.18601 -1.64841e-09 -1.58137e-08)
(0.977822 -7.02672e-10 -1.59147e-09)
(5.19248 -1.64987e-09 6.3441e-09)
(0.958937 -6.98428e-10 2.2977e-10)
(5.19848 -1.65121e-09 -1.82758e-09)
(0.940578 -6.94302e-10 -9.02468e-10)
(5.20414 -1.65248e-09 2.35158e-08)
(0.921711 -6.9006e-10 2.14962e-08)
(0.90307 -6.85873e-10 -6.14548e-09)
(5.21434 -1.65478e-09 -1.41245e-08)
(0.885433 -6.81907e-10 1.72483e-08)
(5.21902 -1.65583e-09 1.63174e-08)
(0.868324 -6.78064e-10 -9.23195e-10)
(0.851861 -6.74363e-10 3.31927e-09)
(0.835965 -6.70792e-10 -1.06943e-08)
(0.820577 -6.67335e-10 -2.15241e-08)
(5.23792 -1.66008e-09 -1.83287e-08)
(0.806067 -6.64074e-10 -2.44238e-08)
(0.7919 -6.60889e-10 -7.43612e-09)
(5.24673 -1.66206e-09 1.3115e-08)
(0.778407 -6.57855e-10 7.90177e-09)
(5.25082 -1.66298e-09 -3.24399e-09)
(0.764829 -6.54805e-10 -1.14278e-08)
(5.25477 -1.66386e-09 5.72709e-09)
(0.750718 -6.51633e-10 -1.00846e-09)
(0.736353 -6.48405e-10 3.96819e-10)
(0.722344 -6.45255e-10 1.56061e-08)
(0.708934 -6.42242e-10 6.26061e-09)
(5.27011 -1.66731e-09 -1.25931e-08)
(0.69611 -6.39362e-10 -2.15564e-08)
(0.683881 -6.36612e-10 6.26946e-09)
(5.27832 -1.66916e-09 7.79484e-09)
(0.672246 -6.33999e-10 -1.71202e-08)
(5.2825 -1.6701e-09 -1.55097e-08)
(0.661185 -6.31512e-10 -2.44316e-09)
(5.28669 -1.67104e-09 -3.31139e-09)
(0.650808 -6.29179e-10 7.5021e-09)
(5.2909 -1.67199e-09 -2.10176e-08)
(0.64092 -6.26956e-10 8.97642e-09)
(0.631583 -6.2486e-10 -1.35652e-08)
(0.622611 -6.22844e-10 -1.94363e-08)
(5.30352 -1.67482e-09 2.69085e-08)
(0.614009 -6.2091e-10 -8.69073e-09)
(0.605629 -6.19026e-10 2.52328e-09)
(5.31194 -1.67671e-09 -8.50395e-09)
(0.597216 -6.17134e-10 1.11402e-08)
(5.31615 -1.67766e-09 1.53489e-08)
(0.5888 -6.15246e-10 -1.88007e-08)
(5.32036 -1.67861e-09 -2.35728e-09)
(0.580383 -6.13351e-10 1.36105e-08)
(5.32456 -1.67955e-09 9.7332e-09)
(0.571967 -6.11462e-10 -1.63304e-08)
(0.563539 -6.09566e-10 1.0267e-08)
(5.33298 -1.68144e-09 -2.56792e-08)
(0.555036 -6.07653e-10 2.88037e-08)
(5.33717 -1.68238e-09 4.33778e-09)
(0.546815 -6.05809e-10 -9.26828e-09)
(5.34138 -1.68333e-09 -1.33684e-08)
(0.538855 -6.04018e-10 1.79965e-08)
(5.34559 -1.68427e-09 1.04845e-08)
(0.531297 -6.02319e-10 1.40201e-08)
(5.34975 -1.68521e-09 5.21425e-09)
(0.524171 -6.00721e-10 -1.55994e-08)
(5.3539 -1.68614e-09 1.78706e-08)
(0.517472 -5.99214e-10 4.4004e-10)
(0.511176 -5.97801e-10 -2.07104e-08)
(5.36212 -1.68799e-09 -9.35691e-09)
(0.505072 -5.96427e-10 -5.43154e-09)
(0.498996 -5.95063e-10 -1.42164e-08)
(5.37101 -1.68999e-09 3.37884e-09)
(5.37572 -1.69105e-09 -1.99587e-08)
(5.38563 -1.69328e-09 -2.46498e-08)
(5.39592 -1.69559e-09 2.01238e-09)
(5.42815 -1.70283e-09 -4.5803e-09)
(5.41925 -1.70083e-09 -1.12597e-08)
(5.49167 -1.7171e-09 1.06422e-08)
(5.48325 -1.71522e-09 -2.51934e-08)
(5.59079 -1.73938e-09 -8.46895e-10)
(5.59972 -1.74139e-09 1.14308e-08)
(5.60859 -1.74338e-09 1.25119e-08)
(5.61721 -1.74532e-09 -1.92152e-08)
(5.66856 -1.75686e-09 -1.54253e-08)
(5.67861 -1.75912e-09 2.06122e-09)
(5.69856 -1.7636e-09 -1.47245e-08)
(5.70824 -1.76578e-09 9.89756e-10)
(5.71782 -1.76793e-09 -2.96719e-08)
(5.72177 -1.76882e-09 5.98683e-09)
(5.72682 -1.76994e-09 1.37752e-07)
(6.03313 3.24035e-08 0.360824)
(6.04013 3.32984e-08 0.37027)
(6.04232 3.35783e-08 0.373225)
(6.05513 3.52162e-08 0.390514)
(6.06252 3.61597e-08 0.400474)
(6.06532 3.65173e-08 0.404248)
(-0.113502 3.92794e-08 0.418721)
(-0.113502 4.63013e-08 0.492714)
(-0.0864837 5.38501e-08 0.572322)
(-0.0158356 5.38342e-08 0.572322)
(6.1379 5.24512e-08 0.572322)
(0.177413 5.37908e-08 0.572322)
(0.240643 5.37766e-08 0.572322)
(6.01334 5.24792e-08 0.572322)
(6.05496 5.24699e-08 0.572322)
(0.356855 5.37505e-08 0.572322)
(0.416403 5.37371e-08 0.572322)
(0.445787 5.37305e-08 0.572322)
(0.501894 5.37179e-08 0.572322)
(5.6717 5.2556e-08 0.572322)
(5.72495 5.2544e-08 0.572322)
(5.57309 5.25782e-08 0.572322)
(5.63427 5.25644e-08 0.572322)
(0.680102 5.36778e-08 0.572322)
(0.732535 5.3666e-08 0.572322)
(5.47677 5.25998e-08 0.572322)
(5.54174 5.25852e-08 0.572322)
(0.760252 5.36598e-08 0.572322)
(0.81887 5.36466e-08 0.572322)
(5.38452 5.26206e-08 0.572322)
(5.44534 5.26069e-08 0.572322)
(0.849903 5.36397e-08 0.572322)
(5.28654 5.26426e-08 0.572322)
(5.35278 5.26277e-08 0.572322)
(1.05384 5.35938e-08 0.572322)
(1.1181 5.35794e-08 0.572322)
(5.01657 5.27033e-08 0.572322)
(5.07848 5.26893e-08 0.572322)
(4.69673 5.27751e-08 0.572322)
(4.76874 5.27589e-08 0.572322)
(4.58366 5.28005e-08 0.572322)
(4.65899 5.27836e-08 0.572322)
(4.38922 5.28442e-08 0.572322)
(4.45012 5.28306e-08 0.572322)
(1.78236 5.34301e-08 0.572322)
(1.84424 5.34162e-08 0.572322)
(4.29048 5.28664e-08 0.572322)
(4.35764 5.28513e-08 0.572322)
(2.10108 5.33585e-08 0.572322)
(2.17457 5.3342e-08 0.572322)
(3.98775 5.29345e-08 0.572322)
(4.05487 5.29194e-08 0.572322)
(2.30541 5.33126e-08 0.572322)
(2.37359 5.32972e-08 0.572322)
(3.78785 5.29794e-08 0.572322)
(3.84996 5.29654e-08 0.572322)
(2.40985 5.32891e-08 0.572322)
(2.48761 5.32716e-08 0.572322)
(2.5262 5.32629e-08 0.572322)
(2.59949 5.32465e-08 0.572322)
(3.60337 5.30209e-08 0.572322)
(3.66628 5.30067e-08 0.572322)
(2.63428 5.32386e-08 0.572322)
(2.70047 5.32238e-08 0.572322)
(2.73306 5.32164e-08 0.572322)
(2.79791 5.32019e-08 0.572322)
(3.21381 5.31084e-08 0.572322)
(3.1152 5.31306e-08 0.572322)
(5.97799 2.16176e-08 0.247038)
(5.97728 2.42502e-08 0.274777)
(3.23005 -1.20883e-09 9.70507e-09)
(5.66518 5.25575e-08 0.572322)
(-0.0831522 -0.429241 0.572322)
(-0.113503 -0.392293 0.572322)
(5.27349 -0.422631 0.572322)
(5.24321 -0.424508 0.572322)
(5.30544 -0.420211 0.572322)
(1.40383 -0.429241 0.572322)
(1.3715 -0.429241 0.572322)
(1.97269 -0.429241 0.572322)
(1.94179 -0.429241 0.572322)
(2.7068 -0.429241 0.572322)
(2.67308 -0.429241 0.572322)
(-0.00408886 -0.429241 0.572322)
(-0.0428985 -0.429241 0.572322)
(0.137895 -0.429241 0.572322)
(0.104246 -0.429241 0.572322)
(0.170379 -0.429241 0.572322)
(0.441185 -0.429241 0.572322)
(0.407148 -0.429241 0.572322)
(2.60329 -0.429241 0.572322)
(2.56925 -0.429241 0.572322)
(2.74046 -0.429241 0.572322)
(1.27249 -0.429241 0.572322)
(1.30456 -0.429241 0.572322)
(0.642889 -0.429241 0.572322)
(0.672931 -0.429241 0.572322)
(1.77632 -0.429241 0.572322)
(1.80916 -0.429241 0.572322)
(-0.0194013 2.27496e-08 0.244764)
(0.0015592 2.24733e-08 0.241902)
(5.71453 -0.362781 0.572322)
(5.70305 -0.364438 0.572322)
(5.73448 -0.357713 0.572322)
(5.72514 -0.360768 0.572322)
(1.33783 -0.429241 0.572322)
(2.93157 -0.429241 0.572322)
(2.89895 -0.429241 0.572322)
(5.77608 -0.343343 0.572322)
(5.77059 -0.345332 0.572322)
(3.55493 -0.429241 0.572322)
(3.58817 -0.429241 0.572322)
(3.14838 -0.429241 0.572322)
(3.11252 -0.429241 0.572322)
(4.98696 -0.429241 0.572322)
(5.01186 -0.429241 0.572322)
(0.178891 8.84446e-09 0.0987096)
(0.175476 8.82277e-09 0.098473)
(0.182394 8.87432e-09 0.0990326)
(3.07525 -0.429241 0.572322)
(3.48958 -0.429241 0.572322)
(3.45873 -0.429241 0.572322)
(4.77136 -0.429241 0.572322)
(4.73551 -0.429241 0.572322)
(1.59156 -0.429241 0.572322)
(1.55818 -0.429241 0.572322)
(3.52165 -0.429241 0.572322)
(6.14652 -0.0727627 0.572322)
(6.14962 -0.0650023 0.572322)
(3.65113 -0.429241 0.572322)
(3.62022 -0.429241 0.572322)
(3.68118 -0.429241 0.572322)
(3.74208 -0.429241 0.572322)
(3.71122 -0.429241 0.572322)
(4.83952 -0.429241 0.572322)
(4.80587 -0.429241 0.572322)
(3.77414 -0.429241 0.572322)
(6.03579 3.0258e-09 0.0512663)
(6.0392 3.1627e-09 0.0527169)
(6.02473 2.59525e-09 0.0467032)
(6.02856 2.74207e-09 0.0482594)
(0.175965 6.10699e-09 0.069857)
(0.179517 5.958e-09 0.0682954)
(0.2555 3.02518e-09 0.0375711)
(0.259062 2.9053e-09 0.0363164)
(3.84109 -0.429241 0.572322)
(3.80742 -0.429241 0.572322)
(0.182938 5.81491e-09 0.0667957)
(0.186471 5.66755e-09 0.0652513)
(5.79976 -0.334317 0.572322)
(5.79538 -0.336041 0.572322)
(2.86703 -0.429241 0.572322)
(0.19013 5.5155e-09 0.0636577)
(0.193881 5.36043e-09 0.0620326)
(3.13186 -1.18677e-09 4.7912e-09)
(3.5874 -1.28914e-09 -4.50649e-09)
(2.88316 -1.13087e-09 -8.85647e-09)
(3.68735 -1.31161e-09 4.34364e-09)
(3.81464 -1.34021e-09 -1.25604e-08)
(4.34222 -1.45878e-09 -1.81297e-08)
(4.37589 -1.46635e-09 -1.71755e-08)
(4.68127 -1.53498e-09 -9.83387e-09)
(4.81186 -1.56433e-09 4.39301e-09)
(5.09205 -1.6273e-09 -3.03877e-09)
(5.15556 -1.64157e-09 4.21331e-10)
(5.24247 -1.6611e-09 1.69813e-09)
(5.27418 -1.66823e-09 6.90093e-09)
(5.29511 -1.67293e-09 2.83528e-09)
(5.29931 -1.67387e-09 3.05559e-09)
(5.3665 -1.68897e-09 7.12744e-10)
(0.492779 -5.93289e-10 3.95095e-06)
(0.486326 -5.89511e-10 2.84783e-05)
(0.480035 -5.83489e-10 7.7043e-05)
(0.473936 -5.7486e-10 0.000153525)
(0.46809 -5.63439e-10 0.000260022)
(0.462451 -5.49343e-10 0.000395203)
(0.457024 -5.32893e-10 0.0005557)
(0.451646 -5.13739e-10 0.000744793)
(0.446154 -4.91026e-10 0.000971119)
(0.440853 -4.66229e-10 0.00121986)
(0.435798 -4.39957e-10 0.00148473)
(0.430999 -4.12161e-10 0.00176626)
(0.426429 -3.83018e-10 0.00206253)
(0.422086 -3.52807e-10 0.00237059)
(0.417925 -3.21504e-10 0.00269059)
(0.413641 -2.86718e-10 0.00304699)
(0.40922 -2.48026e-10 0.00344423)
(0.404541 -2.03907e-10 0.00389806)
(0.399563 -1.53364e-10 0.00441886)
(0.394278 -9.53035e-11 0.00501814)
(0.388694 -2.91626e-11 0.00570187)
(0.382877 4.4291e-11 0.0064621)
(0.376941 1.25391e-10 0.00730263)
(0.371178 2.10286e-10 0.00818354)
(0.365764 2.93034e-10 0.00904267)
(0.360644 3.77652e-10 0.00992219)
(0.355932 4.58275e-10 0.0107606)
(0.351483 5.37273e-10 0.0115825)
(0.347319 6.14899e-10 0.0123906)
(0.343331 6.91526e-10 0.0131886)
(0.339513 7.67224e-10 0.0139772)
(0.335839 8.42167e-10 0.0147582)
(0.332135 9.19799e-10 0.0155675)
(0.328302 1.00218e-09 0.0164265)
(0.324384 1.08886e-09 0.0173306)
(0.320335 1.18078e-09 0.0182896)
(0.316149 1.2783e-09 0.0193073)
(0.311818 1.38236e-09 0.0203935)
(0.307588 1.48746e-09 0.021491)
(0.303526 1.58957e-09 0.0225574)
(0.299574 1.69396e-09 0.023648)
(0.295584 1.79935e-09 0.0247491)
(0.291551 1.91147e-09 0.025921)
(0.287519 2.02359e-09 0.0270929)
(0.283352 2.14514e-09 0.0283638)
(0.279096 2.27047e-09 0.0296744)
(0.27479 2.40109e-09 0.0310406)
(0.270611 2.53115e-09 0.0324012)
(0.266603 2.65844e-09 0.033733)
(0.262763 2.78286e-09 0.0350349)
(0.251813 3.15087e-09 0.0388869)
(0.248053 3.28107e-09 0.0402499)
(0.244163 3.41761e-09 0.0416795)
(0.240148 3.56054e-09 0.0431761)
(0.236 3.71086e-09 0.0447502)
(0.232009 3.85803e-09 0.0462916)
(0.228123 4.00236e-09 0.0478032)
(0.224382 4.14492e-09 0.0492966)
(0.220642 4.28755e-09 0.0507907)
(0.212907 4.59001e-09 0.0539595)
(0.20913 4.74094e-09 0.055541)
(0.216777 4.43869e-09 0.0523742)
(0.205438 4.88853e-09 0.0570874)
(0.20168 5.04124e-09 0.0586877)
(0.197784 5.19995e-09 0.0603508)
(0.172249 6.10783e-09 0.069857)
(0.168616 6.10865e-09 0.069857)
(0.165159 6.14337e-09 0.0702148)
(0.16176 6.26196e-09 0.0714563)
(0.158825 6.45386e-09 0.0734715)
(0.156376 6.72364e-09 0.0763084)
(0.154765 7.03879e-09 0.0796255)
(0.154041 7.40691e-09 0.0835028)
(0.154438 7.79337e-09 0.087576)
(0.155956 8.15035e-09 0.0913412)
(0.158245 8.43189e-09 0.0943133)
(0.161052 8.63697e-09 0.096481)
(0.164531 8.77636e-09 0.097958)
(0.168325 8.82437e-09 0.0984729)
(0.171973 8.82356e-09 0.098473)
(5.40092 -1.69671e-09 -1.27153e-08)
(5.40572 -1.69779e-09 1.04309e-08)
(5.41036 -1.69883e-09 -6.17674e-09)
(5.41486 -1.69984e-09 -1.5273e-08)
(5.43686 -1.70479e-09 -3.13828e-08)
(5.43251 -1.70381e-09 -1.80354e-08)
(5.44112 -1.70574e-09 2.15932e-08)
(0.186028 8.90964e-09 0.0994133)
(0.189799 8.95215e-09 0.0998702)
(5.45379 -1.70859e-09 -1.41648e-08)
(5.44957 -1.70764e-09 -8.22098e-09)
(5.44536 -1.7067e-09 9.48523e-09)
(0.193691 9.00184e-09 0.100403)
(0.19766 9.06025e-09 0.101028)
(5.46221 -1.71049e-09 -8.01812e-09)
(5.458 -1.70954e-09 9.68809e-09)
(5.46642 -1.71143e-09 1.58348e-08)
(0.201496 9.12602e-09 0.10173)
(0.205223 9.19351e-09 0.10245)
(5.47904 -1.71427e-09 -7.48717e-09)
(5.47483 -1.71332e-09 -3.13401e-08)
(5.47062 -1.71238e-09 -1.36338e-08)
(0.208808 9.27375e-09 0.103304)
(0.212532 9.35746e-09 0.104195)
(0.216211 9.46264e-09 0.105312)
(0.219807 9.56537e-09 0.106403)
(0.223153 9.68504e-09 0.107672)
(5.50429 -1.71994e-09 -1.26797e-08)
(5.50008 -1.71899e-09 5.02647e-09)
(5.49587 -1.71805e-09 2.27327e-08)
(0.226399 9.80332e-09 0.108926)
(0.229375 9.93333e-09 0.110303)
(5.51271 -1.72183e-09 -6.53306e-09)
(5.5085 -1.72089e-09 1.11731e-08)
(5.5169 -1.72277e-09 2.34839e-08)
(0.232263 1.00648e-08 0.111695)
(0.234903 1.02068e-08 0.113198)
(5.52942 -1.72559e-09 1.31638e-08)
(5.52526 -1.72466e-09 -1.12549e-08)
(5.52111 -1.72372e-09 5.77772e-09)
(0.237524 1.03567e-08 0.114784)
(0.240145 1.05258e-08 0.116572)
(5.53767 -1.72744e-09 -8.46536e-09)
(5.5335 -1.72651e-09 -1.49576e-08)
(5.54206 -1.72843e-09 1.33667e-08)
(5.55132 -1.73051e-09 1.00559e-08)
(5.54659 -1.72945e-09 9.86868e-09)
(0.24272 1.07163e-08 0.118585)
(5.55624 -1.73162e-09 2.16596e-09)
(5.56132 -1.73276e-09 -1.5807e-09)
(0.24508 1.09133e-08 0.120667)
(5.5665 -1.73392e-09 5.41116e-09)
(5.57167 -1.73508e-09 1.84593e-08)
(0.247246 1.11187e-08 0.122836)
(5.57672 -1.73622e-09 -8.70433e-09)
(5.58157 -1.73731e-09 2.00585e-09)
(0.249164 1.13272e-08 0.125038)
(5.58625 -1.73836e-09 -9.11128e-09)
(0.250867 1.15429e-08 0.127314)
(0.252337 1.17618e-08 0.129625)
(5.60421 -1.7424e-09 -9.42789e-09)
(0.253628 1.19904e-08 0.132037)
(0.254703 1.22206e-08 0.134465)
(5.62146 -1.74628e-09 -1.95608e-08)
(5.62567 -1.74722e-09 4.29211e-09)
(0.255565 1.24486e-08 0.136869)
(5.62988 -1.74817e-09 -1.34141e-08)
(5.63409 -1.74911e-09 1.04388e-08)
(0.256255 1.26833e-08 0.139344)
(5.64246 -1.75099e-09 1.71513e-08)
(5.6383 -1.75006e-09 -7.26743e-09)
(0.256782 1.29306e-08 0.141951)
(5.64661 -1.75193e-09 1.18685e-10)
(5.6507 -1.75284e-09 1.34486e-08)
(0.257121 1.31888e-08 0.144673)
(5.65927 -1.75477e-09 2.38463e-08)
(5.65488 -1.75378e-09 2.01429e-09)
(0.257271 1.34604e-08 0.147535)
(5.66382 -1.7558e-09 -2.73749e-08)
(0.257218 1.37449e-08 0.150533)
(0.256978 1.40402e-08 0.153644)
(5.68876 -1.7614e-09 -2.31431e-08)
(5.68366 -1.76025e-09 -1.32323e-08)
(0.256491 1.43496e-08 0.156903)
(5.69375 -1.76252e-09 -1.99442e-08)
(0.255744 1.46679e-08 0.160255)
(0.25472 1.49902e-08 0.163649)
(0.253385 1.53169e-08 0.167089)
(0.251714 1.56452e-08 0.170544)
(5.73545 -1.77181e-09 8.6454e-07)
(5.73118 -1.77089e-09 4.20181e-07)
(0.249792 1.59529e-08 0.173782)
(5.74384 -1.77357e-09 2.21417e-06)
(5.7396 -1.77269e-09 1.43967e-06)
(0.247704 1.62377e-08 0.176778)
(5.74824 -1.77446e-09 3.18068e-06)
(5.7528 -1.77537e-09 4.40219e-06)
(0.245518 1.64981e-08 0.179517)
(5.75731 -1.77625e-09 5.7888e-06)
(5.76165 -1.77709e-09 7.26331e-06)
(0.243267 1.67357e-08 0.182015)
(5.76587 -1.77788e-09 8.9444e-06)
(5.77014 -1.77759e-09 2.21114e-05)
(0.240956 1.69513e-08 0.184281)
(5.77454 -1.77524e-09 5.73339e-05)
(5.78368 -1.76292e-09 0.000208727)
(5.77911 -1.77021e-09 0.000121083)
(5.79243 -1.74103e-09 0.000460186)
(5.78811 -1.75295e-09 0.000324279)
(5.79661 -1.72829e-09 0.000604278)
(5.80075 -1.71208e-09 0.000784918)
(5.80944 -1.67327e-09 0.00121442)
(5.80501 -1.69418e-09 0.000983653)
(5.81859 -1.62149e-09 0.00178175)
(5.81403 -1.6485e-09 0.00148637)
(5.8273 -1.56254e-09 0.00242358)
(5.82298 -1.59281e-09 0.00209428)
(5.83156 -1.53017e-09 0.0027747)
(5.83593 -1.49472e-09 0.00315865)
(5.84032 -1.45686e-09 0.00356799)
(5.84453 -1.41796e-09 0.00398788)
(5.8526 -1.3377e-09 0.00485272)
(5.84863 -1.37764e-09 0.00442241)
(5.86078 -1.24775e-09 0.00581984)
(5.85662 -1.29372e-09 0.00532561)
(5.86934 -1.14476e-09 0.00692544)
(5.86507 -1.19626e-09 0.00637265)
(5.87746 -1.0382e-09 0.00806743)
(5.87345 -1.09089e-09 0.00750274)
(5.88527 -9.27875e-10 0.00924851)
(5.88131 -9.84164e-10 0.008646)
(5.89327 -8.065e-10 0.0105464)
(5.88934 -8.67253e-10 0.00989693)
(5.90089 -6.83773e-10 0.0118577)
(5.89713 -7.45211e-10 0.0112014)
(5.90469 -6.19444e-10 0.0125446)
(5.90858 -5.51573e-10 0.0132689)
(5.91682 -4.00728e-10 0.014878)
(5.91263 -4.78747e-10 0.0140459)
(5.92116 -3.17699e-10 0.0157632)
(5.92566 -2.28851e-10 0.01671)
(5.92995 -1.40634e-10 0.0176498)
(5.93415 -5.22629e-11 0.0185909)
(5.93817 3.50085e-11 0.01952)
(5.94206 1.21806e-10 0.0204439)
(5.9458 2.07956e-10 0.0213605)
(5.9496 2.97807e-10 0.0223163)
(5.95351 3.92436e-10 0.0233227)
(5.95756 4.93162e-10 0.0243937)
(5.96575 7.05659e-10 0.0266523)
(5.96173 5.99848e-10 0.0255278)
(5.96965 8.10602e-10 0.0277673)
(5.97342 9.14121e-10 0.028867)
(5.97705 1.01748e-09 0.0299647)
(5.98074 1.12414e-09 0.0310974)
(5.98438 1.23224e-09 0.0322452)
(5.98795 1.34015e-09 0.0333907)
(5.99473 1.55181e-09 0.0356371)
(5.99141 1.44679e-09 0.0345226)
(5.99812 1.66083e-09 0.0367939)
(6.00161 1.77519e-09 0.0380071)
(6.0052 1.89603e-09 0.039289)
(6.00889 2.02216e-09 0.0406269)
(6.0127 2.15579e-09 0.0420439)
(6.01664 2.29667e-09 0.0435379)
(6.02072 2.44537e-09 0.0451144)
(6.0323 2.88637e-09 0.0497888)
(6.04584 3.43757e-09 0.0556291)
(6.04244 3.29706e-09 0.0541404)
(6.0493 3.58534e-09 0.0571943)
(0.238606 1.71503e-08 0.186373)
(6.05621 3.88703e-09 0.0603897)
(6.05281 3.73736e-09 0.0588045)
(6.05955 4.03711e-09 0.0619791)
(6.06286 4.18769e-09 0.0635736)
(6.0697 4.50946e-09 0.0669805)
(6.06622 4.3445e-09 0.065234)
(6.0769 4.8631e-09 0.0707239)
(6.07324 4.68137e-09 0.0688003)
(6.08064 5.05454e-09 0.0727501)
(6.08426 5.24588e-09 0.0747749)
(6.08772 5.4338e-09 0.0767633)
(6.09104 5.61936e-09 0.0787264)
(6.0942 5.80269e-09 0.0806657)
(6.09729 5.98763e-09 0.0826218)
(6.10352 6.38144e-09 0.0867863)
(6.10039 6.18067e-09 0.0846633)
(6.10673 6.59438e-09 0.0890377)
(6.10986 6.81313e-09 0.0913502)
(6.11573 7.24441e-09 0.0959086)
(6.11285 7.0305e-09 0.0936477)
(6.12376 7.90279e-09 0.102865)
(6.12116 7.67749e-09 0.100485)
(6.11841 7.45864e-09 0.0981724)
(0.236095 1.73445e-08 0.188413)
(0.233368 1.75372e-08 0.190437)
(6.12635 8.1281e-09 0.105245)
(6.13163 8.62617e-09 0.110506)
(6.12895 8.37098e-09 0.107811)
(6.13431 8.89269e-09 0.113321)
(6.137 9.17662e-09 0.116319)
(6.14189 9.7269e-09 0.122129)
(6.13954 9.45677e-09 0.119277)
(6.14413 9.99456e-09 0.124955)
(6.14621 1.02515e-08 0.127668)
(6.14817 1.0508e-08 0.130375)
(6.15004 1.07681e-08 0.13312)
(6.15191 1.10439e-08 0.136031)
(6.15371 1.13327e-08 0.139078)
(6.15551 1.16426e-08 0.142348)
(6.15724 1.1968e-08 0.145781)
(6.16044 1.26834e-08 0.153328)
(6.1589 1.23173e-08 0.149465)
(6.16176 1.30469e-08 0.157161)
(6.16283 1.34036e-08 0.160922)
(6.1637 1.37513e-08 0.164587)
(6.1644 1.40945e-08 0.168206)
(6.1649 1.44397e-08 0.171845)
(6.16526 1.48018e-08 0.175661)
(6.16546 1.55457e-08 0.1835)
(6.16545 1.51739e-08 0.179582)
(6.16522 1.59254e-08 0.1875)
(6.16467 1.63136e-08 0.19159)
(6.16384 1.66848e-08 0.195499)
(6.16272 1.70395e-08 0.199235)
(6.16125 1.73969e-08 0.202997)
(6.15943 1.77502e-08 0.206716)
(6.15496 1.84043e-08 0.213598)
(6.15732 1.80909e-08 0.2103)
(6.15246 1.86884e-08 0.216585)
(6.14985 1.89467e-08 0.219301)
(6.14721 1.91798e-08 0.221751)
(6.14431 1.94029e-08 0.224094)
(6.13766 1.98355e-08 0.228638)
(6.14115 1.96224e-08 0.2264)
(6.12964 2.02411e-08 0.232893)
(6.13383 2.00419e-08 0.230803)
(6.12038 2.05968e-08 0.236619)
(6.12513 2.04279e-08 0.23485)
(6.11105 2.08616e-08 0.239387)
(6.11565 2.07408e-08 0.238125)
(6.10665 2.09623e-08 0.240437)
(6.10235 2.10469e-08 0.241319)
(6.09818 2.11169e-08 0.242046)
(6.09382 2.11779e-08 0.242678)
(6.0893 2.12308e-08 0.243226)
(6.0846 2.12771e-08 0.243703)
(6.07992 2.13155e-08 0.244096)
(6.0754 2.13442e-08 0.244387)
(6.06675 2.13753e-08 0.244695)
(6.07102 2.13638e-08 0.244584)
(6.05797 2.13768e-08 0.24469)
(6.06242 2.13798e-08 0.244732)
(6.05338 2.13659e-08 0.244564)
(6.0485 2.13459e-08 0.244342)
(6.03799 2.1278e-08 0.243602)
(6.04336 2.13165e-08 0.24402)
(6.0324 2.12309e-08 0.243092)
(6.02669 2.11748e-08 0.242487)
(6.01572 2.10514e-08 0.241162)
(6.02109 2.11141e-08 0.241834)
(6.01054 2.09877e-08 0.240478)
(6.00557 2.09238e-08 0.239792)
(6.0008 2.08605e-08 0.239114)
(0.230405 1.77294e-08 0.192455)
(0.227185 1.79216e-08 0.194473)
(0.223729 1.81133e-08 0.196485)
(0.220022 1.83023e-08 0.198468)
(5.99618 2.08207e-08 0.238684)
(0.216126 1.84842e-08 0.200375)
(5.99175 2.08355e-08 0.238829)
(5.98767 2.09242e-08 0.239755)
(0.212326 1.86499e-08 0.202112)
(0.208613 1.88017e-08 0.203703)
(0.204992 1.894e-08 0.205152)
(0.201434 1.90688e-08 0.206501)
(0.197825 1.91923e-08 0.207793)
(5.98038 2.14386e-08 0.245157)
(5.98104 2.13473e-08 0.244197)
(0.194046 1.93146e-08 0.209073)
(0.190112 1.94355e-08 0.210338)
(0.186091 1.95531e-08 0.211567)
(0.182131 1.96623e-08 0.212709)
(0.17831 1.97631e-08 0.213762)
(0.174615 1.98567e-08 0.214739)
(0.17101 1.9944e-08 0.215651)
(0.167259 2.00311e-08 0.21656)
(0.163371 2.01178e-08 0.217464)
(0.159326 2.02043e-08 0.218366)
(0.155108 2.0291e-08 0.21927)
(0.150716 2.03775e-08 0.220171)
(0.146107 2.04644e-08 0.221076)
(0.141289 2.05513e-08 0.22198)
(0.136211 2.06387e-08 0.222889)
(0.130896 2.0726e-08 0.223796)
(0.125338 2.08132e-08 0.224702)
(0.119461 2.0901e-08 0.225613)
(0.113101 2.09915e-08 0.226552)
(0.105905 2.10888e-08 0.22756)
(0.097975 2.11946e-08 0.228656)
(0.0887291 2.13178e-08 0.229932)
(6.00433 2.87146e-08 0.321884)
(6.00184 2.83951e-08 0.318511)
(5.99945 2.80887e-08 0.315277)
(0.0783995 2.14552e-08 0.231356)
(6.00689 2.90432e-08 0.325353)
(6.01207 2.97071e-08 0.332361)
(6.00952 2.93793e-08 0.3289)
(6.02007 3.07309e-08 0.343168)
(6.01733 3.03786e-08 0.339449)
(6.01467 3.00391e-08 0.335865)
(6.02554 3.143e-08 0.350547)
(6.02283 3.10841e-08 0.346896)
(6.02815 3.17646e-08 0.354079)
(6.03067 3.20876e-08 0.357489)
(6.03552 3.27078e-08 0.364036)
(6.03786 3.30079e-08 0.367203)
(6.04443 3.3847e-08 0.376061)
(6.04658 3.41217e-08 0.378961)
(0.0665628 2.16126e-08 0.232986)
(0.0528062 2.17952e-08 0.234878)
(6.04869 3.43919e-08 0.381813)
(0.0375544 2.19974e-08 0.236972)
(6.05077 3.46584e-08 0.384626)
(6.05293 3.49339e-08 0.387534)
(6.05749 3.55156e-08 0.393675)
(6.05993 3.58282e-08 0.396974)
(0.0204293 2.22241e-08 0.23932)
(-0.0418094 2.30446e-08 0.247819)
(6.07155 3.73117e-08 0.412634)
(6.0683 3.68976e-08 0.408263)
(6.07503 3.77568e-08 0.417332)
(-0.0658255 2.33598e-08 0.251084)
(6.07877 3.82354e-08 0.422384)
(6.0871 3.92989e-08 0.433611)
(6.08281 3.87495e-08 0.427811)
(6.09651 4.04978e-08 0.446266)
(6.09168 3.98821e-08 0.439767)
(6.11171 4.24382e-08 0.466749)
(6.10673 4.18027e-08 0.460041)
(6.10156 4.11433e-08 0.45308)
(-0.113503 2.65549e-08 0.284638)
(-0.0909111 2.36885e-08 0.254488)
(6.11639 4.30385e-08 0.473085)
(-0.113504 2.96437e-08 0.317186)
(-0.113503 3.59584e-08 0.383727)
(-0.113503 3.27587e-08 0.35001)
(6.12851 4.45801e-08 0.489359)
(6.12482 4.41121e-08 0.484418)
(6.13196 4.50179e-08 0.49398)
(6.13506 4.54269e-08 0.498297)
(6.14043 4.61992e-08 0.506448)
(6.13785 4.58175e-08 0.50242)
(6.14548 4.69936e-08 0.514831)
(6.14293 4.65873e-08 0.510543)
(6.15271 4.81972e-08 0.527531)
(6.15049 4.78052e-08 0.523395)
(6.14795 4.74111e-08 0.519236)
(-0.113503 5.00092e-08 0.531785)
(6.1562 4.89548e-08 0.535522)
(6.15458 4.85794e-08 0.531563)
(6.15738 4.93209e-08 0.539383)
(6.15849 4.97029e-08 0.54341)
(6.16031 5.05366e-08 0.5522)
(6.15943 5.01106e-08 0.547709)
(6.16155 5.14762e-08 0.562104)
(6.16103 5.09951e-08 0.557033)
(6.16184 5.19956e-08 0.567577)
(0.08176 5.38123e-08 0.572322)
(0.0178476 5.38267e-08 0.572322)
(6.11612 5.24561e-08 0.572322)
(0.112553 5.38054e-08 0.572322)
(0.144582 5.37982e-08 0.572322)
(6.10311 5.24591e-08 0.572322)
(6.07266 5.24659e-08 0.572322)
(0.270803 5.37698e-08 0.572322)
(0.299819 5.37633e-08 0.572322)
(0.328038 5.37569e-08 0.572322)
(5.96393 5.24903e-08 0.572322)
(5.98967 5.24846e-08 0.572322)
(5.93678 5.24964e-08 0.572322)
(5.84714 5.25166e-08 0.572322)
(5.8782 5.25096e-08 0.572322)
(5.90816 5.25029e-08 0.572322)
(5.78473 5.25306e-08 0.572322)
(5.8154 5.25237e-08 0.572322)
(5.7552 5.25372e-08 0.572322)
(0.528285 5.37119e-08 0.572322)
(0.554004 5.37062e-08 0.572322)
(0.578725 5.37006e-08 0.572322)
(5.69531 5.25507e-08 0.572322)
(0.65442 5.36836e-08 0.572322)
(0.603584 5.3695e-08 0.572322)
(1.01961 5.36015e-08 0.572322)
(0.949415 5.36173e-08 0.572322)
(5.25415 5.26499e-08 0.572322)
(5.19283 5.26636e-08 0.572322)
(5.16399 5.26701e-08 0.572322)
(5.10759 5.26828e-08 0.572322)
(1.2041 5.35601e-08 0.572322)
(1.14795 5.35727e-08 0.572322)
(1.23169 5.35539e-08 0.572322)
(1.2602 5.35474e-08 0.572322)
(1.28976 5.35408e-08 0.572322)
(4.98371 5.27106e-08 0.572322)
(4.91493 5.27261e-08 0.572322)
(1.35023 5.35272e-08 0.572322)
(1.37923 5.35207e-08 0.572322)
(1.32013 5.3534e-08 0.572322)
(4.84166 5.27426e-08 0.572322)
(4.87849 5.27343e-08 0.572322)
(4.80458 5.27509e-08 0.572322)
(1.4625 5.3502e-08 0.572322)
(1.40747 5.35144e-08 0.572322)
(1.49136 5.34955e-08 0.572322)
(1.52173 5.34887e-08 0.572322)
(1.55275 5.34817e-08 0.572322)
(1.61835 5.3467e-08 0.572322)
(1.65171 5.34595e-08 0.572322)
(1.58492 5.34745e-08 0.572322)
(4.48153 5.28235e-08 0.572322)
(4.51417 5.28162e-08 0.572322)
(4.54831 5.28085e-08 0.572322)
(1.75125 5.34371e-08 0.572322)
(1.68574 5.34518e-08 0.572322)
(1.87732 5.34088e-08 0.572322)
(1.91154 5.34011e-08 0.572322)
(1.94728 5.3393e-08 0.572322)
(4.25525 5.28743e-08 0.572322)
(4.18633 5.28898e-08 0.572322)
(2.02388 5.33758e-08 0.572322)
(2.06255 5.33671e-08 0.572322)