FoamFile
{
    version     5.0;
    format      ascii;
    class       dictionary;
    object      ITHACAPODdict;
}

EigenSolver eigen;






// ************************************************************************* //
